data_CrI3
_audit_creation_date              2018-11-17
_audit_creation_method            'Materials Studio'
_symmetry_space_group_name_H-M    'P1'
_symmetry_Int_Tables_number       1
_symmetry_cell_setting            triclinic
loop_
_symmetry_equiv_pos_as_xyz
  x,y,z
_cell_length_a                    5.6390
_cell_length_b                    5.6393
_cell_length_c                    20.0000
_cell_angle_alpha                 90.0000
_cell_angle_beta                  90.0000
_cell_angle_gamma                 120.0000
loop_
_atom_site_label
_atom_site_type_symbol
_atom_site_fract_x
_atom_site_fract_y
_atom_site_fract_z
_atom_site_U_iso_or_equiv
_atom_site_adp_type
_atom_site_occupancy
O1     I     0.50002   0.00005   0.46943   0.01267  Uiso   1.00
O2     I     0.00003   0.50002   0.46944   0.01267  Uiso   1.00
O3     I     0.50003   0.50008   0.46943   0.01267  Uiso   1.00
O4     I     0.00002   0.50001   0.58641   0.01267  Uiso   1.00
O5     I     0.50003   0.00006   0.58639   0.01267  Uiso   1.00
O6     I     0.50003   0.50007   0.58642   0.01267  Uiso   1.00
Nb1    Cr    0.33337   0.66672   0.52793   0.01267  Uiso   1.00
Nb2    Cr    0.66668   0.33339   0.52792   0.01267  Uiso   1.00
loop_
_geom_bond_atom_site_label_1
_geom_bond_atom_site_label_2
_geom_bond_distance
_geom_bond_site_symmetry_2
_ccdc_geom_bond_type
O1     Nb1     2.005   1_545 S
O1     Nb2     2.005   .     S
O2     Nb1     2.005   .     S
O2     Nb2     2.004   1_455 S
O3     Nb1     2.005   .     S
O3     Nb2     2.004   .     S
O4     Nb1     2.005   .     S
O4     Nb2     2.005   1_455 S
O5     Nb1     2.004   1_545 S
O5     Nb2     2.004   .     S
O6     Nb1     2.005   .     S
O6     Nb2     2.005   .     S
Nb1    O5      2.004   1_565 S
Nb1    O1      2.005   1_565 S
Nb2    O4      2.005   1_655 S
Nb2    O2      2.004   1_655 S
