data_Y4Co3
_audit_creation_date              2024-04-29
_audit_creation_method            'Materials Studio'
_symmetry_space_group_name_H-M    'P-3'
_symmetry_Int_Tables_number       147
_symmetry_cell_setting            trigonal
loop_
_symmetry_equiv_pos_as_xyz
  x,y,z
  -y,x-y,z
  -x+y,-x,z
  -x,-y,-z
  y,-x+y,-z
  x-y,x,-z
_cell_length_a                    11.3357
_cell_length_b                    11.3357
_cell_length_c                    4.0964
_cell_angle_alpha                 90.0000
_cell_angle_beta                  90.0000
_cell_angle_gamma                 120.0000
loop_
_atom_site_label
_atom_site_type_symbol
_atom_site_fract_x
_atom_site_fract_y
_atom_site_fract_z
_atom_site_U_iso_or_equiv
_atom_site_adp_type
_atom_site_occupancy
Y0     Y     0.24958   0.02669   0.25159   0.00000  Uiso   1.00
Y6     Y     0.86375   0.48405   0.25045   0.00000  Uiso   1.00
Co14   Co    0.55831   0.84183   0.25125   0.00000  Uiso   1.00
Co12   Co    0.33333   0.66667   0.25129   0.00000  Uiso   1.00
Co20   Co    0.00000   0.00000   0.50000   0.00000  Uiso   1.00
