# generated using pymatgen
data_NiO
_symmetry_space_group_name_H-M   'P 1'
_cell_length_a   8.37267518
_cell_length_b   8.37267518
_cell_length_c   8.37267518
_cell_angle_alpha   90.00000000
_cell_angle_beta   90.00000000
_cell_angle_gamma   90.00000000
_symmetry_Int_Tables_number   1
_chemical_formula_structural   NiO
_chemical_formula_sum   'Ni32 O32'
_cell_volume   586.93867717
_cell_formula_units_Z   32
loop_
 _symmetry_equiv_pos_site_id
 _symmetry_equiv_pos_as_xyz
  1  'x, y, z'
loop_
 _atom_site_type_symbol
 _atom_site_label
 _atom_site_symmetry_multiplicity
 _atom_site_fract_x
 _atom_site_fract_y
 _atom_site_fract_z
 _atom_site_occupancy
  Ni  Ni0  1  0.00000000  0.00000000  0.00000000  1
  Ni  Ni1  1  0.00000000  0.00000000  0.50000000  1
  Ni  Ni2  1  0.00000000  0.50000000  0.00000000  1
  Ni  Ni3  1  0.00000000  0.50000000  0.50000000  1
  Ni  Ni4  1  0.50000000  0.00000000  0.00000000  1
  Ni  Ni5  1  0.50000000  0.00000000  0.50000000  1
  Ni  Ni6  1  0.50000000  0.50000000  0.00000000  1
  Ni  Ni7  1  0.50000000  0.50000000  0.50000000  1
  O  O8  1  0.25000000  0.00000000  0.00000000  1
  O  O9  1  0.25000000  0.00000000  0.50000000  1
  O  O10  1  0.25000000  0.50000000  0.00000000  1
  O  O11  1  0.25000000  0.50000000  0.50000000  1
  O  O12  1  0.75000000  0.00000000  0.00000000  1
  O  O13  1  0.75000000  0.00000000  0.50000000  1
  O  O14  1  0.75000000  0.50000000  0.00000000  1
  O  O15  1  0.75000000  0.50000000  0.50000000  1
  Ni  Ni16  1  0.00000000  0.25000000  0.25000000  1
  Ni  Ni17  1  0.00000000  0.25000000  0.75000000  1
  Ni  Ni18  1  0.00000000  0.75000000  0.25000000  1
  Ni  Ni19  1  0.00000000  0.75000000  0.75000000  1
  Ni  Ni20  1  0.50000000  0.25000000  0.25000000  1
  Ni  Ni21  1  0.50000000  0.25000000  0.75000000  1
  Ni  Ni22  1  0.50000000  0.75000000  0.25000000  1
  Ni  Ni23  1  0.50000000  0.75000000  0.75000000  1
  O  O24  1  0.25000000  0.25000000  0.25000000  1
  O  O25  1  0.25000000  0.25000000  0.75000000  1
  O  O26  1  0.25000000  0.75000000  0.25000000  1
  O  O27  1  0.25000000  0.75000000  0.75000000  1
  O  O28  1  0.75000000  0.25000000  0.25000000  1
  O  O29  1  0.75000000  0.25000000  0.75000000  1
  O  O30  1  0.75000000  0.75000000  0.25000000  1
  O  O31  1  0.75000000  0.75000000  0.75000000  1
  Ni  Ni32  1  0.25000000  0.00000000  0.25000000  1
  Ni  Ni33  1  0.25000000  0.00000000  0.75000000  1
  Ni  Ni34  1  0.25000000  0.50000000  0.25000000  1
  Ni  Ni35  1  0.25000000  0.50000000  0.75000000  1
  Ni  Ni36  1  0.75000000  0.00000000  0.25000000  1
  Ni  Ni37  1  0.75000000  0.00000000  0.75000000  1
  Ni  Ni38  1  0.75000000  0.50000000  0.25000000  1
  Ni  Ni39  1  0.75000000  0.50000000  0.75000000  1
  O  O40  1  0.00000000  0.00000000  0.25000000  1
  O  O41  1  0.00000000  0.00000000  0.75000000  1
  O  O42  1  0.00000000  0.50000000  0.25000000  1
  O  O43  1  0.00000000  0.50000000  0.75000000  1
  O  O44  1  0.50000000  0.00000000  0.25000000  1
  O  O45  1  0.50000000  0.00000000  0.75000000  1
  O  O46  1  0.50000000  0.50000000  0.25000000  1
  O  O47  1  0.50000000  0.50000000  0.75000000  1
  Ni  Ni48  1  0.25000000  0.25000000  0.00000000  1
  Ni  Ni49  1  0.25000000  0.25000000  0.50000000  1
  Ni  Ni50  1  0.25000000  0.75000000  0.00000000  1
  Ni  Ni51  1  0.25000000  0.75000000  0.50000000  1
  Ni  Ni52  1  0.75000000  0.25000000  0.00000000  1
  Ni  Ni53  1  0.75000000  0.25000000  0.50000000  1
  Ni  Ni54  1  0.75000000  0.75000000  0.00000000  1
  Ni  Ni55  1  0.75000000  0.75000000  0.50000000  1
  O  O56  1  0.00000000  0.25000000  0.00000000  1
  O  O57  1  0.00000000  0.25000000  0.50000000  1
  O  O58  1  0.00000000  0.75000000  0.00000000  1
  O  O59  1  0.00000000  0.75000000  0.50000000  1
  O  O60  1  0.50000000  0.25000000  0.00000000  1
  O  O61  1  0.50000000  0.25000000  0.50000000  1
  O  O62  1  0.50000000  0.75000000  0.00000000  1
  O  O63  1  0.50000000  0.75000000  0.50000000  1
