# generated using pymatgen
data_CrI3
_symmetry_space_group_name_H-M   'P 1'
_cell_length_a   27.97800000
_cell_length_b   27.97800000
_cell_length_c   20.71950000
_cell_angle_alpha   90.00000000
_cell_angle_beta   90.00000000
_cell_angle_gamma   120.00000000
_symmetry_Int_Tables_number   1
_chemical_formula_structural   CrI3
_chemical_formula_sum   'Cr32 I96'
_cell_volume   14045.69502237
_cell_formula_units_Z   32
loop_
 _symmetry_equiv_pos_site_id
 _symmetry_equiv_pos_as_xyz
  1  'x, y, z'
loop_
 _atom_site_type_symbol
 _atom_site_label
 _atom_site_symmetry_multiplicity
 _atom_site_fract_x
 _atom_site_fract_y
 _atom_site_fract_z
 _atom_site_occupancy
  Cr  Cr0  1  0.08333333  0.16666667  0.50000000  1
  Cr  Cr1  1  0.08333333  0.41666667  0.50000000  1
  Cr  Cr2  1  0.08333333  0.66666667  0.50000000  1
  Cr  Cr3  1  0.08333333  0.91666667  0.50000000  1
  Cr  Cr4  1  0.33333333  0.16666667  0.50000000  1
  Cr  Cr5  1  0.33333333  0.41666667  0.50000000  1
  Cr  Cr6  1  0.33333333  0.66666667  0.50000000  1
  Cr  Cr7  1  0.33333333  0.91666667  0.50000000  1
  Cr  Cr8  1  0.58333333  0.16666667  0.50000000  1
  Cr  Cr9  1  0.58333333  0.41666667  0.50000000  1
  Cr  Cr10  1  0.58333333  0.66666667  0.50000000  1
  Cr  Cr11  1  0.58333333  0.91666667  0.50000000  1
  Cr  Cr12  1  0.83333333  0.16666667  0.50000000  1
  Cr  Cr13  1  0.83333333  0.41666667  0.50000000  1
  Cr  Cr14  1  0.83333333  0.66666667  0.50000000  1
  Cr  Cr15  1  0.83333333  0.91666667  0.50000000  1
  Cr  Cr16  1  0.16666667  0.08333333  0.50000000  1
  Cr  Cr17  1  0.16666667  0.33333333  0.50000000  1
  Cr  Cr18  1  0.16666667  0.58333333  0.50000000  1
  Cr  Cr19  1  0.16666667  0.83333333  0.50000000  1
  Cr  Cr20  1  0.41666667  0.08333333  0.50000000  1
  Cr  Cr21  1  0.41666667  0.33333333  0.50000000  1
  Cr  Cr22  1  0.41666667  0.58333333  0.50000000  1
  Cr  Cr23  1  0.41666667  0.83333333  0.50000000  1
  Cr  Cr24  1  0.66666667  0.08333333  0.50000000  1
  Cr  Cr25  1  0.66666667  0.33333333  0.50000000  1
  Cr  Cr26  1  0.66666667  0.58333333  0.50000000  1
  Cr  Cr27  1  0.66666667  0.83333333  0.50000000  1
  Cr  Cr28  1  0.91666667  0.08333333  0.50000000  1
  Cr  Cr29  1  0.91666667  0.33333333  0.50000000  1
  Cr  Cr30  1  0.91666667  0.58333333  0.50000000  1
  Cr  Cr31  1  0.91666667  0.83333333  0.50000000  1
  I  I32  1  0.08981500  0.00000000  0.42467000  1
  I  I33  1  0.08981500  0.25000000  0.42467000  1
  I  I34  1  0.08981500  0.50000000  0.42467000  1
  I  I35  1  0.08981500  0.75000000  0.42467000  1
  I  I36  1  0.33981500  0.00000000  0.42467000  1
  I  I37  1  0.33981500  0.25000000  0.42467000  1
  I  I38  1  0.33981500  0.50000000  0.42467000  1
  I  I39  1  0.33981500  0.75000000  0.42467000  1
  I  I40  1  0.58981500  0.00000000  0.42467000  1
  I  I41  1  0.58981500  0.25000000  0.42467000  1
  I  I42  1  0.58981500  0.50000000  0.42467000  1
  I  I43  1  0.58981500  0.75000000  0.42467000  1
  I  I44  1  0.83981500  0.00000000  0.42467000  1
  I  I45  1  0.83981500  0.25000000  0.42467000  1
  I  I46  1  0.83981500  0.50000000  0.42467000  1
  I  I47  1  0.83981500  0.75000000  0.42467000  1
  I  I48  1  0.16018500  0.00000000  0.57533000  1
  I  I49  1  0.16018500  0.25000000  0.57533000  1
  I  I50  1  0.16018500  0.50000000  0.57533000  1
  I  I51  1  0.16018500  0.75000000  0.57533000  1
  I  I52  1  0.41018500  0.00000000  0.57533000  1
  I  I53  1  0.41018500  0.25000000  0.57533000  1
  I  I54  1  0.41018500  0.50000000  0.57533000  1
  I  I55  1  0.41018500  0.75000000  0.57533000  1
  I  I56  1  0.66018500  0.00000000  0.57533000  1
  I  I57  1  0.66018500  0.25000000  0.57533000  1
  I  I58  1  0.66018500  0.50000000  0.57533000  1
  I  I59  1  0.66018500  0.75000000  0.57533000  1
  I  I60  1  0.91018500  0.00000000  0.57533000  1
  I  I61  1  0.91018500  0.25000000  0.57533000  1
  I  I62  1  0.91018500  0.50000000  0.57533000  1
  I  I63  1  0.91018500  0.75000000  0.57533000  1
  I  I64  1  0.00000000  0.08981500  0.42467000  1
  I  I65  1  0.00000000  0.33981500  0.42467000  1
  I  I66  1  1.00000000  0.58981500  0.42467000  1
  I  I67  1  1.00000000  0.83981500  0.42467000  1
  I  I68  1  0.25000000  0.08981500  0.42467000  1
  I  I69  1  0.25000000  0.33981500  0.42467000  1
  I  I70  1  0.25000000  0.58981500  0.42467000  1
  I  I71  1  0.25000000  0.83981500  0.42467000  1
  I  I72  1  0.50000000  0.08981500  0.42467000  1
  I  I73  1  0.50000000  0.33981500  0.42467000  1
  I  I74  1  0.50000000  0.58981500  0.42467000  1
  I  I75  1  0.50000000  0.83981500  0.42467000  1
  I  I76  1  0.75000000  0.08981500  0.42467000  1
  I  I77  1  0.75000000  0.33981500  0.42467000  1
  I  I78  1  0.75000000  0.58981500  0.42467000  1
  I  I79  1  0.75000000  0.83981500  0.42467000  1
  I  I80  1  0.00000000  0.16018500  0.57533000  1
  I  I81  1  0.00000000  0.41018500  0.57533000  1
  I  I82  1  0.00000000  0.66018500  0.57533000  1
  I  I83  1  1.00000000  0.91018500  0.57533000  1
  I  I84  1  0.25000000  0.16018500  0.57533000  1
  I  I85  1  0.25000000  0.41018500  0.57533000  1
  I  I86  1  0.25000000  0.66018500  0.57533000  1
  I  I87  1  0.25000000  0.91018500  0.57533000  1
  I  I88  1  0.50000000  0.16018500  0.57533000  1
  I  I89  1  0.50000000  0.41018500  0.57533000  1
  I  I90  1  0.50000000  0.66018500  0.57533000  1
  I  I91  1  0.50000000  0.91018500  0.57533000  1
  I  I92  1  0.75000000  0.16018500  0.57533000  1
  I  I93  1  0.75000000  0.41018500  0.57533000  1
  I  I94  1  0.75000000  0.66018500  0.57533000  1
  I  I95  1  0.75000000  0.91018500  0.57533000  1
  I  I96  1  0.16018500  0.16018500  0.42467000  1
  I  I97  1  0.16018500  0.41018500  0.42467000  1
  I  I98  1  0.16018500  0.66018500  0.42467000  1
  I  I99  1  0.16018500  0.91018500  0.42467000  1
  I  I100  1  0.41018500  0.16018500  0.42467000  1
  I  I101  1  0.41018500  0.41018500  0.42467000  1
  I  I102  1  0.41018500  0.66018500  0.42467000  1
  I  I103  1  0.41018500  0.91018500  0.42467000  1
  I  I104  1  0.66018500  0.16018500  0.42467000  1
  I  I105  1  0.66018500  0.41018500  0.42467000  1
  I  I106  1  0.66018500  0.66018500  0.42467000  1
  I  I107  1  0.66018500  0.91018500  0.42467000  1
  I  I108  1  0.91018500  0.16018500  0.42467000  1
  I  I109  1  0.91018500  0.41018500  0.42467000  1
  I  I110  1  0.91018500  0.66018500  0.42467000  1
  I  I111  1  0.91018500  0.91018500  0.42467000  1
  I  I112  1  0.08981500  0.08981500  0.57533000  1
  I  I113  1  0.08981500  0.33981500  0.57533000  1
  I  I114  1  0.08981500  0.58981500  0.57533000  1
  I  I115  1  0.08981500  0.83981500  0.57533000  1
  I  I116  1  0.33981500  0.08981500  0.57533000  1
  I  I117  1  0.33981500  0.33981500  0.57533000  1
  I  I118  1  0.33981500  0.58981500  0.57533000  1
  I  I119  1  0.33981500  0.83981500  0.57533000  1
  I  I120  1  0.58981500  0.08981500  0.57533000  1
  I  I121  1  0.58981500  0.33981500  0.57533000  1
  I  I122  1  0.58981500  0.58981500  0.57533000  1
  I  I123  1  0.58981500  0.83981500  0.57533000  1
  I  I124  1  0.83981500  0.08981500  0.57533000  1
  I  I125  1  0.83981500  0.33981500  0.57533000  1
  I  I126  1  0.83981500  0.58981500  0.57533000  1
  I  I127  1  0.83981500  0.83981500  0.57533000  1
