# generated using pymatgen
data_Y4Co3
_symmetry_space_group_name_H-M   'P 1'
_cell_length_a   11.33571598
_cell_length_b   11.33571598
_cell_length_c   4.09641400
_cell_angle_alpha   90.00000000
_cell_angle_beta   90.00000000
_cell_angle_gamma   120.00000000
_symmetry_Int_Tables_number   1
_chemical_formula_structural   Y4Co3
_chemical_formula_sum   'Y12 Co9'
_cell_volume   455.86094368
_cell_formula_units_Z   3
loop_
 _symmetry_equiv_pos_site_id
 _symmetry_equiv_pos_as_xyz
  1  'x, y, z'
loop_
 _atom_site_type_symbol
 _atom_site_label
 _atom_site_symmetry_multiplicity
 _atom_site_fract_x
 _atom_site_fract_y
 _atom_site_fract_z
 _atom_site_occupancy
  Y  Y0  1  0.24957933  0.02668867  0.25159300  1
  Y  Y1  1  0.77710933  0.75042067  0.25159300  1
  Y  Y2  1  0.97331133  0.22289067  0.25159300  1
  Y  Y3  1  0.75042067  0.97331133  0.74840700  1
  Y  Y4  1  0.22289067  0.24957933  0.74840700  1
  Y  Y5  1  0.02668867  0.77710933  0.74840700  1
  Y  Y6  1  0.86375133  0.48405167  0.25045200  1
  Y  Y7  1  0.62030033  0.13624867  0.25045200  1
  Y  Y8  1  0.51594833  0.37969967  0.25045200  1
  Y  Y9  1  0.13624867  0.51594833  0.74954800  1
  Y  Y10  1  0.37969967  0.86375133  0.74954800  1
  Y  Y11  1  0.48405167  0.62030033  0.74954800  1
  Co  Co12  1  0.33333333  0.66666667  0.25128700  1
  Co  Co13  1  0.66666667  0.33333333  0.74871300  1
  Co  Co14  1  0.55831433  0.84183367  0.25125400  1
  Co  Co15  1  0.28351933  0.44168567  0.25125400  1
  Co  Co16  1  0.15816633  0.71648067  0.25125400  1
  Co  Co17  1  0.44168567  0.15816633  0.74874600  1
  Co  Co18  1  0.71648067  0.55831433  0.74874600  1
  Co  Co19  1  0.84183367  0.28351933  0.74874600  1
  Co  Co20  1  0.00000000  0.00000000  0.50000000  1
