data_CrI3
_audit_creation_date              2024-06-18
_audit_creation_method            'Materials Studio'
_symmetry_space_group_name_H-M    'P-31M'
_symmetry_Int_Tables_number       162
_symmetry_cell_setting            trigonal
loop_
_symmetry_equiv_pos_as_xyz
  x,y,z
  -y,x-y,z
  -x+y,-x,z
  -y,-x,-z
  -x+y,y,-z
  x,x-y,-z
  -x,-y,-z
  y,-x+y,-z
  x-y,x,-z
  y,x,z
  x-y,-y,z
  -x,-x+y,z
_cell_length_a                    6.9945
_cell_length_b                    6.9945
_cell_length_c                    20.7195
_cell_angle_alpha                 90.0000
_cell_angle_beta                  90.0000
_cell_angle_gamma                 120.0000
loop_
_atom_site_label
_atom_site_type_symbol
_atom_site_fract_x
_atom_site_fract_y
_atom_site_fract_z
_atom_site_U_iso_or_equiv
_atom_site_adp_type
_atom_site_occupancy
Cr1    Cr    0.33333   0.66667   0.50000   0.00000  Uiso   1.00
I1     I     0.35926  -0.00000   0.42467   0.00000  Uiso   1.00
loop_
_geom_bond_atom_site_label_1
_geom_bond_atom_site_label_2
_geom_bond_distance
_geom_bond_site_symmetry_2
_ccdc_geom_bond_type
Cr1    I1      2.735   1_565 S
Cr1    I1      2.735   2     S
Cr1    I1      2.735   3_665 S
Cr1    I1      2.735   4_566 S
Cr1    I1      2.735   5_666 S
Cr1    I1      2.735   6_556 S
I1     Cr1     2.735   7_666 S
I1     Cr1     2.735   1_545 S
