data_Cs2CuCl4
_audit_creation_date              2024-05-12
_audit_creation_method            'Materials Studio'
_symmetry_space_group_name_H-M    'PNMA'
_symmetry_Int_Tables_number       62
_symmetry_cell_setting            orthorhombic
loop_
_symmetry_equiv_pos_as_xyz
  x,y,z
  -x+1/2,-y,z+1/2
  -x,y+1/2,-z
  x+1/2,-y+1/2,-z+1/2
  -x,-y,-z
  x+1/2,y,-z+1/2
  x,-y+1/2,z
  -x+1/2,y+1/2,z+1/2
_cell_length_a                    9.8399
_cell_length_b                    7.6237
_cell_length_c                    12.3360
_cell_angle_alpha                 90.0000
_cell_angle_beta                  90.0000
_cell_angle_gamma                 90.0000
loop_
_atom_site_label
_atom_site_type_symbol
_atom_site_fract_x
_atom_site_fract_y
_atom_site_fract_z
_atom_site_U_iso_or_equiv
_atom_site_adp_type
_atom_site_occupancy
Cl1    Cl   -0.28673   0.51503   0.35736   0.00000  Uiso   1.00
Cs1    Cs   -0.13438   0.25000   0.10386   0.00000  Uiso   1.00
Cs4    Cs   -0.01271   0.25000   0.67309   0.00000  Uiso   1.00
Cu1    Cu   -0.72917   0.25000   0.08272   0.00000  Uiso   1.00
Cl4    Cl   -0.34849   0.25000   0.57320   0.00000  Uiso   1.00
Cl8    Cl   -0.49499   0.75000   0.87876   0.00000  Uiso   1.00
