# generated using pymatgen
data_Cs2CuCl4
_symmetry_space_group_name_H-M   'P 1'
_cell_length_a   19.67980000
_cell_length_b   15.24740000
_cell_length_c   24.67200000
_cell_angle_alpha   90.00000000
_cell_angle_beta   90.00000000
_cell_angle_gamma   90.00000000
_symmetry_Int_Tables_number   1
_chemical_formula_structural   Cs2CuCl4
_chemical_formula_sum   'Cs64 Cu32 Cl128'
_cell_volume   7403.22298633
_cell_formula_units_Z   32
loop_
 _symmetry_equiv_pos_site_id
 _symmetry_equiv_pos_as_xyz
  1  'x, y, z'
loop_
 _atom_site_type_symbol
 _atom_site_label
 _atom_site_symmetry_multiplicity
 _atom_site_fract_x
 _atom_site_fract_y
 _atom_site_fract_z
 _atom_site_occupancy
  Cs  Cs0  1  0.43281000  0.12500000  0.05193000  1
  Cs  Cs1  1  0.43281000  0.12500000  0.55193000  1
  Cs  Cs2  1  0.43281000  0.62500000  0.05193000  1
  Cs  Cs3  1  0.43281000  0.62500000  0.55193000  1
  Cs  Cs4  1  0.93281000  0.12500000  0.05193000  1
  Cs  Cs5  1  0.93281000  0.12500000  0.55193000  1
  Cs  Cs6  1  0.93281000  0.62500000  0.05193000  1
  Cs  Cs7  1  0.93281000  0.62500000  0.55193000  1
  Cs  Cs8  1  0.31719000  0.37500000  0.30193000  1
  Cs  Cs9  1  0.31719000  0.37500000  0.80193000  1
  Cs  Cs10  1  0.31719000  0.87500000  0.30193000  1
  Cs  Cs11  1  0.31719000  0.87500000  0.80193000  1
  Cs  Cs12  1  0.81719000  0.37500000  0.30193000  1
  Cs  Cs13  1  0.81719000  0.37500000  0.80193000  1
  Cs  Cs14  1  0.81719000  0.87500000  0.30193000  1
  Cs  Cs15  1  0.81719000  0.87500000  0.80193000  1
  Cs  Cs16  1  0.06719000  0.37500000  0.44807000  1
  Cs  Cs17  1  0.06719000  0.37500000  0.94807000  1
  Cs  Cs18  1  0.06719000  0.87500000  0.44807000  1
  Cs  Cs19  1  0.06719000  0.87500000  0.94807000  1
  Cs  Cs20  1  0.56719000  0.37500000  0.44807000  1
  Cs  Cs21  1  0.56719000  0.37500000  0.94807000  1
  Cs  Cs22  1  0.56719000  0.87500000  0.44807000  1
  Cs  Cs23  1  0.56719000  0.87500000  0.94807000  1
  Cs  Cs24  1  0.18281000  0.12500000  0.19807000  1
  Cs  Cs25  1  0.18281000  0.12500000  0.69807000  1
  Cs  Cs26  1  0.18281000  0.62500000  0.19807000  1
  Cs  Cs27  1  0.18281000  0.62500000  0.69807000  1
  Cs  Cs28  1  0.68281000  0.12500000  0.19807000  1
  Cs  Cs29  1  0.68281000  0.12500000  0.69807000  1
  Cs  Cs30  1  0.68281000  0.62500000  0.19807000  1
  Cs  Cs31  1  0.68281000  0.62500000  0.69807000  1
  Cs  Cs32  1  0.49364500  0.12500000  0.33654500  1
  Cs  Cs33  1  0.49364500  0.12500000  0.83654500  1
  Cs  Cs34  1  0.49364500  0.62500000  0.33654500  1
  Cs  Cs35  1  0.49364500  0.62500000  0.83654500  1
  Cs  Cs36  1  0.99364500  0.12500000  0.33654500  1
  Cs  Cs37  1  0.99364500  0.12500000  0.83654500  1
  Cs  Cs38  1  0.99364500  0.62500000  0.33654500  1
  Cs  Cs39  1  0.99364500  0.62500000  0.83654500  1
  Cs  Cs40  1  0.25635500  0.37500000  0.08654500  1
  Cs  Cs41  1  0.25635500  0.37500000  0.58654500  1
  Cs  Cs42  1  0.25635500  0.87500000  0.08654500  1
  Cs  Cs43  1  0.25635500  0.87500000  0.58654500  1
  Cs  Cs44  1  0.75635500  0.37500000  0.08654500  1
  Cs  Cs45  1  0.75635500  0.37500000  0.58654500  1
  Cs  Cs46  1  0.75635500  0.87500000  0.08654500  1
  Cs  Cs47  1  0.75635500  0.87500000  0.58654500  1
  Cs  Cs48  1  0.00635500  0.37500000  0.16345500  1
  Cs  Cs49  1  0.00635500  0.37500000  0.66345500  1
  Cs  Cs50  1  0.00635500  0.87500000  0.16345500  1
  Cs  Cs51  1  0.00635500  0.87500000  0.66345500  1
  Cs  Cs52  1  0.50635500  0.37500000  0.16345500  1
  Cs  Cs53  1  0.50635500  0.37500000  0.66345500  1
  Cs  Cs54  1  0.50635500  0.87500000  0.16345500  1
  Cs  Cs55  1  0.50635500  0.87500000  0.66345500  1
  Cs  Cs56  1  0.24364500  0.12500000  0.41345500  1
  Cs  Cs57  1  0.24364500  0.12500000  0.91345500  1
  Cs  Cs58  1  0.24364500  0.62500000  0.41345500  1
  Cs  Cs59  1  0.24364500  0.62500000  0.91345500  1
  Cs  Cs60  1  0.74364500  0.12500000  0.41345500  1
  Cs  Cs61  1  0.74364500  0.12500000  0.91345500  1
  Cs  Cs62  1  0.74364500  0.62500000  0.41345500  1
  Cs  Cs63  1  0.74364500  0.62500000  0.91345500  1
  Cu  Cu64  1  0.13541500  0.12500000  0.04136000  1
  Cu  Cu65  1  0.13541500  0.12500000  0.54136000  1
  Cu  Cu66  1  0.13541500  0.62500000  0.04136000  1
  Cu  Cu67  1  0.13541500  0.62500000  0.54136000  1
  Cu  Cu68  1  0.63541500  0.12500000  0.04136000  1
  Cu  Cu69  1  0.63541500  0.12500000  0.54136000  1
  Cu  Cu70  1  0.63541500  0.62500000  0.04136000  1
  Cu  Cu71  1  0.63541500  0.62500000  0.54136000  1
  Cu  Cu72  1  0.11458500  0.37500000  0.29136000  1
  Cu  Cu73  1  0.11458500  0.37500000  0.79136000  1
  Cu  Cu74  1  0.11458500  0.87500000  0.29136000  1
  Cu  Cu75  1  0.11458500  0.87500000  0.79136000  1
  Cu  Cu76  1  0.61458500  0.37500000  0.29136000  1
  Cu  Cu77  1  0.61458500  0.37500000  0.79136000  1
  Cu  Cu78  1  0.61458500  0.87500000  0.29136000  1
  Cu  Cu79  1  0.61458500  0.87500000  0.79136000  1
  Cu  Cu80  1  0.36458500  0.37500000  0.45864000  1
  Cu  Cu81  1  0.36458500  0.37500000  0.95864000  1
  Cu  Cu82  1  0.36458500  0.87500000  0.45864000  1
  Cu  Cu83  1  0.36458500  0.87500000  0.95864000  1
  Cu  Cu84  1  0.86458500  0.37500000  0.45864000  1
  Cu  Cu85  1  0.86458500  0.37500000  0.95864000  1
  Cu  Cu86  1  0.86458500  0.87500000  0.45864000  1
  Cu  Cu87  1  0.86458500  0.87500000  0.95864000  1
  Cu  Cu88  1  0.38541500  0.12500000  0.20864000  1
  Cu  Cu89  1  0.38541500  0.12500000  0.70864000  1
  Cu  Cu90  1  0.38541500  0.62500000  0.20864000  1
  Cu  Cu91  1  0.38541500  0.62500000  0.70864000  1
  Cu  Cu92  1  0.88541500  0.12500000  0.20864000  1
  Cu  Cu93  1  0.88541500  0.12500000  0.70864000  1
  Cu  Cu94  1  0.88541500  0.62500000  0.20864000  1
  Cu  Cu95  1  0.88541500  0.62500000  0.70864000  1
  Cl  Cl96  1  0.35663500  0.25751500  0.17868000  1
  Cl  Cl97  1  0.35663500  0.25751500  0.67868000  1
  Cl  Cl98  1  0.35663500  0.75751500  0.17868000  1
  Cl  Cl99  1  0.35663500  0.75751500  0.67868000  1
  Cl  Cl100  1  0.85663500  0.25751500  0.17868000  1
  Cl  Cl101  1  0.85663500  0.25751500  0.67868000  1
  Cl  Cl102  1  0.85663500  0.75751500  0.17868000  1
  Cl  Cl103  1  0.85663500  0.75751500  0.67868000  1
  Cl  Cl104  1  0.39336500  0.24248500  0.42868000  1
  Cl  Cl105  1  0.39336500  0.24248500  0.92868000  1
  Cl  Cl106  1  0.39336500  0.74248500  0.42868000  1
  Cl  Cl107  1  0.39336500  0.74248500  0.92868000  1
  Cl  Cl108  1  0.89336500  0.24248500  0.42868000  1
  Cl  Cl109  1  0.89336500  0.24248500  0.92868000  1
  Cl  Cl110  1  0.89336500  0.74248500  0.42868000  1
  Cl  Cl111  1  0.89336500  0.74248500  0.92868000  1
  Cl  Cl112  1  0.14336500  0.00751500  0.32132000  1
  Cl  Cl113  1  0.14336500  0.00751500  0.82132000  1
  Cl  Cl114  1  0.14336500  0.50751500  0.32132000  1
  Cl  Cl115  1  0.14336500  0.50751500  0.82132000  1
  Cl  Cl116  1  0.64336500  0.00751500  0.32132000  1
  Cl  Cl117  1  0.64336500  0.00751500  0.82132000  1
  Cl  Cl118  1  0.64336500  0.50751500  0.32132000  1
  Cl  Cl119  1  0.64336500  0.50751500  0.82132000  1
  Cl  Cl120  1  0.10663500  0.49248500  0.07132000  1
  Cl  Cl121  1  0.10663500  0.49248500  0.57132000  1
  Cl  Cl122  1  0.10663500  0.99248500  0.07132000  1
  Cl  Cl123  1  0.10663500  0.99248500  0.57132000  1
  Cl  Cl124  1  0.60663500  0.49248500  0.07132000  1
  Cl  Cl125  1  0.60663500  0.49248500  0.57132000  1
  Cl  Cl126  1  0.60663500  0.99248500  0.07132000  1
  Cl  Cl127  1  0.60663500  0.99248500  0.57132000  1
  Cl  Cl128  1  0.14336500  0.24248500  0.32132000  1
  Cl  Cl129  1  0.14336500  0.24248500  0.82132000  1
  Cl  Cl130  1  0.14336500  0.74248500  0.32132000  1
  Cl  Cl131  1  0.14336500  0.74248500  0.82132000  1
  Cl  Cl132  1  0.64336500  0.24248500  0.32132000  1
  Cl  Cl133  1  0.64336500  0.24248500  0.82132000  1
  Cl  Cl134  1  0.64336500  0.74248500  0.32132000  1
  Cl  Cl135  1  0.64336500  0.74248500  0.82132000  1
  Cl  Cl136  1  0.10663500  0.25751500  0.07132000  1
  Cl  Cl137  1  0.10663500  0.25751500  0.57132000  1
  Cl  Cl138  1  0.10663500  0.75751500  0.07132000  1
  Cl  Cl139  1  0.10663500  0.75751500  0.57132000  1
  Cl  Cl140  1  0.60663500  0.25751500  0.07132000  1
  Cl  Cl141  1  0.60663500  0.25751500  0.57132000  1
  Cl  Cl142  1  0.60663500  0.75751500  0.07132000  1
  Cl  Cl143  1  0.60663500  0.75751500  0.57132000  1
  Cl  Cl144  1  0.35663500  0.49248500  0.17868000  1
  Cl  Cl145  1  0.35663500  0.49248500  0.67868000  1
  Cl  Cl146  1  0.35663500  0.99248500  0.17868000  1
  Cl  Cl147  1  0.35663500  0.99248500  0.67868000  1
  Cl  Cl148  1  0.85663500  0.49248500  0.17868000  1
  Cl  Cl149  1  0.85663500  0.49248500  0.67868000  1
  Cl  Cl150  1  0.85663500  0.99248500  0.17868000  1
  Cl  Cl151  1  0.85663500  0.99248500  0.67868000  1
  Cl  Cl152  1  0.39336500  0.00751500  0.42868000  1
  Cl  Cl153  1  0.39336500  0.00751500  0.92868000  1
  Cl  Cl154  1  0.39336500  0.50751500  0.42868000  1
  Cl  Cl155  1  0.39336500  0.50751500  0.92868000  1
  Cl  Cl156  1  0.89336500  0.00751500  0.42868000  1
  Cl  Cl157  1  0.89336500  0.00751500  0.92868000  1
  Cl  Cl158  1  0.89336500  0.50751500  0.42868000  1
  Cl  Cl159  1  0.89336500  0.50751500  0.92868000  1
  Cl  Cl160  1  0.32575500  0.12500000  0.28660000  1
  Cl  Cl161  1  0.32575500  0.12500000  0.78660000  1
  Cl  Cl162  1  0.32575500  0.62500000  0.28660000  1
  Cl  Cl163  1  0.32575500  0.62500000  0.78660000  1
  Cl  Cl164  1  0.82575500  0.12500000  0.28660000  1
  Cl  Cl165  1  0.82575500  0.12500000  0.78660000  1
  Cl  Cl166  1  0.82575500  0.62500000  0.28660000  1
  Cl  Cl167  1  0.82575500  0.62500000  0.78660000  1
  Cl  Cl168  1  0.42424500  0.37500000  0.03660000  1
  Cl  Cl169  1  0.42424500  0.37500000  0.53660000  1
  Cl  Cl170  1  0.42424500  0.87500000  0.03660000  1
  Cl  Cl171  1  0.42424500  0.87500000  0.53660000  1
  Cl  Cl172  1  0.92424500  0.37500000  0.03660000  1
  Cl  Cl173  1  0.92424500  0.37500000  0.53660000  1
  Cl  Cl174  1  0.92424500  0.87500000  0.03660000  1
  Cl  Cl175  1  0.92424500  0.87500000  0.53660000  1
  Cl  Cl176  1  0.17424500  0.37500000  0.21340000  1
  Cl  Cl177  1  0.17424500  0.37500000  0.71340000  1
  Cl  Cl178  1  0.17424500  0.87500000  0.21340000  1
  Cl  Cl179  1  0.17424500  0.87500000  0.71340000  1
  Cl  Cl180  1  0.67424500  0.37500000  0.21340000  1
  Cl  Cl181  1  0.67424500  0.37500000  0.71340000  1
  Cl  Cl182  1  0.67424500  0.87500000  0.21340000  1
  Cl  Cl183  1  0.67424500  0.87500000  0.71340000  1
  Cl  Cl184  1  0.07575500  0.12500000  0.46340000  1
  Cl  Cl185  1  0.07575500  0.12500000  0.96340000  1
  Cl  Cl186  1  0.07575500  0.62500000  0.46340000  1
  Cl  Cl187  1  0.07575500  0.62500000  0.96340000  1
  Cl  Cl188  1  0.57575500  0.12500000  0.46340000  1
  Cl  Cl189  1  0.57575500  0.12500000  0.96340000  1
  Cl  Cl190  1  0.57575500  0.62500000  0.46340000  1
  Cl  Cl191  1  0.57575500  0.62500000  0.96340000  1
  Cl  Cl192  1  0.25250500  0.37500000  0.43938000  1
  Cl  Cl193  1  0.25250500  0.37500000  0.93938000  1
  Cl  Cl194  1  0.25250500  0.87500000  0.43938000  1
  Cl  Cl195  1  0.25250500  0.87500000  0.93938000  1
  Cl  Cl196  1  0.75250500  0.37500000  0.43938000  1
  Cl  Cl197  1  0.75250500  0.37500000  0.93938000  1
  Cl  Cl198  1  0.75250500  0.87500000  0.43938000  1
  Cl  Cl199  1  0.75250500  0.87500000  0.93938000  1
  Cl  Cl200  1  0.49749500  0.12500000  0.18938000  1
  Cl  Cl201  1  0.49749500  0.12500000  0.68938000  1
  Cl  Cl202  1  0.49749500  0.62500000  0.18938000  1
  Cl  Cl203  1  0.49749500  0.62500000  0.68938000  1
  Cl  Cl204  1  0.99749500  0.12500000  0.18938000  1
  Cl  Cl205  1  0.99749500  0.12500000  0.68938000  1
  Cl  Cl206  1  0.99749500  0.62500000  0.18938000  1
  Cl  Cl207  1  0.99749500  0.62500000  0.68938000  1
  Cl  Cl208  1  0.24749500  0.12500000  0.06062000  1
  Cl  Cl209  1  0.24749500  0.12500000  0.56062000  1
  Cl  Cl210  1  0.24749500  0.62500000  0.06062000  1
  Cl  Cl211  1  0.24749500  0.62500000  0.56062000  1
  Cl  Cl212  1  0.74749500  0.12500000  0.06062000  1
  Cl  Cl213  1  0.74749500  0.12500000  0.56062000  1
  Cl  Cl214  1  0.74749500  0.62500000  0.06062000  1
  Cl  Cl215  1  0.74749500  0.62500000  0.56062000  1
  Cl  Cl216  1  0.00250500  0.37500000  0.31062000  1
  Cl  Cl217  1  0.00250500  0.37500000  0.81062000  1
  Cl  Cl218  1  0.00250500  0.87500000  0.31062000  1
  Cl  Cl219  1  0.00250500  0.87500000  0.81062000  1
  Cl  Cl220  1  0.50250500  0.37500000  0.31062000  1
  Cl  Cl221  1  0.50250500  0.37500000  0.81062000  1
  Cl  Cl222  1  0.50250500  0.87500000  0.31062000  1
  Cl  Cl223  1  0.50250500  0.87500000  0.81062000  1
